ASSIGN OUTPUT2='shell.op2',UNIT=12
ID,NASTRAN,shell
SOL 101
TIME 999
CEND
TITLE =simple shell model
ECHO = NONE
OUTPUT
DISPLACEMENT(PLOT) = ALL
STRESS(PLOT,CORNER) = ALL
STRAIN(PLOT,FIBER,CORNER) = ALL
FORCE(PLOT,CORNER) = ALL
ESE(PLOT) = ALL
OLOAD(PLOT) = ALL
SPCFORCES(PLOT) = ALL
SPC = 1
SUBTITLE =pressure load
LOAD = 1
BEGIN BULK 
PARAM,AUTOSPC,YES 
PARAM,GRDPNT,0 
PARAM,POST, -1
PARAM,PATVER, 3.0
PARAM,K6ROT,100.0000
PARAM,MAXRATIO, 1.+8
GRID*                 97               0 4.000000000E-01 1.000000000E-01*1000097
*1000097 8.333333333E-02               0                               0
GRID*                 99               0 4.000000000E-01 1.000000000E-01*1000099
*1000099 1.666666667E-01               0                               0
GRID*                110               0 4.998270626E-01 1.000000000E-01*1000110
*1000110 1.649956822E-01               0                               0
GRID*                112               0 4.994994939E-01 1.000000000E-01*1000112
*1000112 8.185772896E-02               0                               0
GRID*                 98               0 4.000000000E-01 1.000000000E-01*1000098
*1000098 1.250000000E-01               0                               0
GRID*                107               0 4.499135313E-01 1.000000000E-01*1000107
*1000107 1.658311745E-01               0                               0
GRID*                108               0 4.996632783E-01 1.000000000E-01*1000108
*1000108 1.234267056E-01               0                               0
GRID*                106               0 4.497497469E-01 1.000000000E-01*1000106
*1000106 8.259553115E-02               0                               0
GRID*                 95               0 4.000000000E-01 1.000000000E-01*1000095
*1000095 2.500000000E-01               0                               0
GRID*                 93               0 5.000000000E-01 1.000000000E-01*1000093
*1000093 2.500000000E-01               0                               0
GRID*                100               0 4.000000000E-01 1.000000000E-01*1000100
*1000100 2.083333333E-01               0                               0
GRID*                 94               0 4.500000000E-01 1.000000000E-01*1000094
*1000094 2.500000000E-01               0                               0
GRID*                111               0 4.999135313E-01 1.000000000E-01*1000111
*1000111 2.074978411E-01               0                               0
GRID*                 72               0 5.000000000E-01 1.000000000E-01*1000072
*1000072 0.000000000E+00               0                               0
GRID*                 70               0 4.000000000E-01 1.000000000E-01*1000070
*1000070 0.000000000E+00               0                               0
GRID*                 71               0 4.500000000E-01 1.000000000E-01*1000071
*1000071 0.000000000E+00               0                               0
GRID*                 96               0 4.000000000E-01 1.000000000E-01*1000096
*1000096 4.166666667E-02               0                               0
GRID*                109               0 4.997497469E-01 1.000000000E-01*1000109
*1000109 4.092886448E-02               0                               0
GRID*                118               0 5.990233662E-01 1.000000000E-01*1000118
*1000118 8.159758250E-02               0                               0
GRID*                119               0 5.997657587E-01 1.000000000E-01*1000119
*1000119 1.644477954E-01               0                               0
$ ... 348 like lines cut
MAT1*                  1 3.000000000E+07                 3.000000000E-01*2001000
*2001000                 6.500000000E-06                                
PSHELL         1       10.200000       11.000000       10.833333        
CQUAD8        16       1      97      99     110     112      98     107+
+            108     106                                        
CQUAD8        17       1      99      95      93     110     100      94+
+            111     107                                        
CQUAD8        18       1      72      70      97     112      71      96+
+            106     109                                        
CQUAD8        19       1     118     112     110     119     113     108+
+            114     115                                        
CQUAD8        20       1      93      91     119     110      92     117+
+            114     111                                        
CQUAD8        21       1      74      72     112     118      73     109+
+            113     116                                        
CQUAD8        22       1      76      74     118     122      75     116+
+            120     125                                        
CQUAD8        23       1     119     123     122     118     121     126+
+            120     115                                        
CQUAD8        24       1      91      89     123     119      90     124+
+            121     117                                        
CQUAD8        25       1      78      76     122     129      77     125+
+            127     131                                        
CQUAD8        26       1     129     122     123     130     127     126+
+            128     133                                        
CQUAD8        27       1      89      87     130     123      88     132+
+            128     124                                        
CQUAD8        28       1      87      85     136     130      86     138+
+            135     132                                        
CQUAD8        29       1      80      78     129     139      79     131+
+            134     137                                        
CQUAD8        30       1     139     129     130     136     134     133+
+            135     140                                        
CQUAD8        31       1      85      83     104     136      84     105+
+            142     138                                        
CQUAD8        32       1     102      82      80     139     101      81+
+            137     141                                        
CQUAD8        33       1     104     102     139     136     103     141+
+            140     142                                        
CQUAD8        34       1     166     164     172     174     165     169+
+            170     168                                        
CQUAD8        35       1     164     162     160     172     163     161+
+            173     169                                        
$ ... 62 like lines cut
CORD2R         1          0.0000  0.0000  0.0000  0.0000  0.00001.000000
        1.000000  0.0000  0.0000
PLOAD4         1      33-10000.0
PLOAD4         1      31-10000.0
PLOAD4         1      19-10000.0
PLOAD4         1      29-10000.0
PLOAD4         1      24-10000.0
PLOAD4         1      22-10000.0
PLOAD4         1      30-10000.0
PLOAD4         1      16-10000.0
PLOAD4         1      25-10000.0
PLOAD4         1      17-10000.0
PLOAD4         1      26-10000.0
PLOAD4         1      32-10000.0
PLOAD4         1      28-10000.0
PLOAD4         1      23-10000.0
PLOAD4         1      18-10000.0
PLOAD4         1      27-10000.0
PLOAD4         1      20-10000.0
PLOAD4         1      21-10000.0
SPC            1     162  123456  0.0000
SPC            1     204  123456  0.0000
SPC            1     143  123456  0.0000
SPC            1     198  123456  0.0000
SPC            1     248  123456  0.0000
SPC            1     257  123456  0.0000
SPC            1     227  123456  0.0000
SPC            1     260  123456  0.0000
SPC            1     233  123456  0.0000
SPC            1     209  123456  0.0000
SPC            1     255  123456  0.0000
SPC            1     262  123456  0.0000
SPC            1     164  123456  0.0000
SPC            1     245  123456  0.0000
SPC            1     242  123456  0.0000
SPC            1     253  123456  0.0000
SPC            1     231  123456  0.0000
SPC            1     229  123456  0.0000
SPC            1     206  123456  0.0000
SPC            1     163  123456  0.0000
$ ... 53 like lines cut
ENDDATA 585383c3
